
---------- Begin Simulation Statistics ----------
simSeconds                                   0.645808                       # Number of seconds simulated (Second)
simTicks                                 645807836708                       # Number of ticks simulated (Tick)
finalTick                                6096663036531                       # Number of ticks from beginning of simulation (restored from checkpoints and never reset) (Tick)
simFreq                                  1000000000000                       # The number of ticks per simulated second ((Tick/Second))
hostSeconds                                  18980.22                       # Real time elapsed on the host (Second)
hostTickRate                                 34025314                       # The number of ticks simulated per host second (ticks/s) ((Tick/Second))
hostMemory                                   11653128                       # Number of bytes of host memory used (Byte)
simInsts                                   6776796120                       # Number of instructions simulated (Count)
simOps                                    12533606524                       # Number of ops (including micro ops) simulated (Count)
hostInstRate                                   357045                       # Simulator instruction rate (inst/s) ((Count/Second))
hostOpRate                                     660351                       # Simulator op (including micro ops) rate (op/s) ((Count/Second))
system.cache_hierarchy.ruby_system.delayHistogram::bucket_size          128                       # delay histogram for all message (Unspecified)
system.cache_hierarchy.ruby_system.delayHistogram::max_bucket         1279                       # delay histogram for all message (Unspecified)
system.cache_hierarchy.ruby_system.delayHistogram::samples    307281566                       # delay histogram for all message (Unspecified)
system.cache_hierarchy.ruby_system.delayHistogram::mean     1.121928                       # delay histogram for all message (Unspecified)
system.cache_hierarchy.ruby_system.delayHistogram::stdev     3.075867                       # delay histogram for all message (Unspecified)
system.cache_hierarchy.ruby_system.delayHistogram |   307281270    100.00%    100.00% |         257      0.00%    100.00% |          11      0.00%    100.00% |           6      0.00%    100.00% |           5      0.00%    100.00% |           5      0.00%    100.00% |           5      0.00%    100.00% |           3      0.00%    100.00% |           2      0.00%    100.00% |           2      0.00%    100.00% # delay histogram for all message (Unspecified)
system.cache_hierarchy.ruby_system.delayHistogram::total    307281566                       # delay histogram for all message (Unspecified)
system.cache_hierarchy.ruby_system.m_outstandReqHistSeqr::bucket_size            2                       (Unspecified)
system.cache_hierarchy.ruby_system.m_outstandReqHistSeqr::max_bucket           19                       (Unspecified)
system.cache_hierarchy.ruby_system.m_outstandReqHistSeqr::samples   1073518900                       (Unspecified)
system.cache_hierarchy.ruby_system.m_outstandReqHistSeqr::mean     2.281541                       (Unspecified)
system.cache_hierarchy.ruby_system.m_outstandReqHistSeqr::gmean     1.716208                       (Unspecified)
system.cache_hierarchy.ruby_system.m_outstandReqHistSeqr::stdev     2.122060                       (Unspecified)
system.cache_hierarchy.ruby_system.m_outstandReqHistSeqr |   557426776     51.93%     51.93% |   338675110     31.55%     83.47% |    55642991      5.18%     88.66% |    55750950      5.19%     93.85% |    62683038      5.84%     99.69% |     3309113      0.31%    100.00% |       14258      0.00%    100.00% |       11000      0.00%    100.00% |        5664      0.00%    100.00% |           0      0.00%    100.00% (Unspecified)
system.cache_hierarchy.ruby_system.m_outstandReqHistSeqr::total   1073518900                       (Unspecified)
system.cache_hierarchy.ruby_system.m_latencyHistSeqr::bucket_size          256                       (Unspecified)
system.cache_hierarchy.ruby_system.m_latencyHistSeqr::max_bucket         2559                       (Unspecified)
system.cache_hierarchy.ruby_system.m_latencyHistSeqr::samples   1073642008                       (Unspecified)
system.cache_hierarchy.ruby_system.m_latencyHistSeqr::mean     4.405332                       (Unspecified)
system.cache_hierarchy.ruby_system.m_latencyHistSeqr::gmean     1.184121                       (Unspecified)
system.cache_hierarchy.ruby_system.m_latencyHistSeqr::stdev    28.711984                       (Unspecified)
system.cache_hierarchy.ruby_system.m_latencyHistSeqr |  1072571483     99.90%     99.90% |      802781      0.07%     99.98% |       50529      0.00%     99.98% |       22160      0.00%     99.98% |      178913      0.02%    100.00% |       13173      0.00%    100.00% |        2959      0.00%    100.00% |          10      0.00%    100.00% |           0      0.00%    100.00% |           0      0.00%    100.00% (Unspecified)
system.cache_hierarchy.ruby_system.m_latencyHistSeqr::total   1073642008                       (Unspecified)
system.cache_hierarchy.ruby_system.m_hitLatencyHistSeqr::bucket_size          256                       (Unspecified)
system.cache_hierarchy.ruby_system.m_hitLatencyHistSeqr::max_bucket         2559                       (Unspecified)
system.cache_hierarchy.ruby_system.m_hitLatencyHistSeqr::samples   1023096710                       (Unspecified)
system.cache_hierarchy.ruby_system.m_hitLatencyHistSeqr::mean     1.000668                       (Unspecified)
system.cache_hierarchy.ruby_system.m_hitLatencyHistSeqr::gmean     1.000107                       (Unspecified)
system.cache_hierarchy.ruby_system.m_hitLatencyHistSeqr::stdev     0.361132                       (Unspecified)
system.cache_hierarchy.ruby_system.m_hitLatencyHistSeqr |  1023096546    100.00%    100.00% |         144      0.00%    100.00% |           3      0.00%    100.00% |           0      0.00%    100.00% |          10      0.00%    100.00% |           7      0.00%    100.00% |           0      0.00%    100.00% |           0      0.00%    100.00% |           0      0.00%    100.00% |           0      0.00%    100.00% (Unspecified)
system.cache_hierarchy.ruby_system.m_hitLatencyHistSeqr::total   1023096710                       (Unspecified)
system.cache_hierarchy.ruby_system.m_missLatencyHistSeqr::bucket_size          256                       (Unspecified)
system.cache_hierarchy.ruby_system.m_missLatencyHistSeqr::max_bucket         2559                       (Unspecified)
system.cache_hierarchy.ruby_system.m_missLatencyHistSeqr::samples     50545298                       (Unspecified)
system.cache_hierarchy.ruby_system.m_missLatencyHistSeqr::mean    73.319755                       (Unspecified)
system.cache_hierarchy.ruby_system.m_missLatencyHistSeqr::gmean    36.147788                       (Unspecified)
system.cache_hierarchy.ruby_system.m_missLatencyHistSeqr::stdev   111.912013                       (Unspecified)
system.cache_hierarchy.ruby_system.m_missLatencyHistSeqr |    49474937     97.88%     97.88% |      802637      1.59%     99.47% |       50526      0.10%     99.57% |       22160      0.04%     99.61% |      178903      0.35%     99.97% |       13166      0.03%     99.99% |        2959      0.01%    100.00% |          10      0.00%    100.00% |           0      0.00%    100.00% |           0      0.00%    100.00% (Unspecified)
system.cache_hierarchy.ruby_system.m_missLatencyHistSeqr::total     50545298                       (Unspecified)
system.cache_hierarchy.ruby_system.delayVCHist.vnet_0::bucket_size          128                       # delay histogram for vnet_0 (Unspecified)
system.cache_hierarchy.ruby_system.delayVCHist.vnet_0::max_bucket         1279                       # delay histogram for vnet_0 (Unspecified)
system.cache_hierarchy.ruby_system.delayVCHist.vnet_0::samples    156746558                       # delay histogram for vnet_0 (Unspecified)
system.cache_hierarchy.ruby_system.delayVCHist.vnet_0::mean     2.140102                       # delay histogram for vnet_0 (Unspecified)
system.cache_hierarchy.ruby_system.delayVCHist.vnet_0::stdev     4.008625                       # delay histogram for vnet_0 (Unspecified)
system.cache_hierarchy.ruby_system.delayVCHist.vnet_0 |   156746262    100.00%    100.00% |         257      0.00%    100.00% |          11      0.00%    100.00% |           6      0.00%    100.00% |           5      0.00%    100.00% |           5      0.00%    100.00% |           5      0.00%    100.00% |           3      0.00%    100.00% |           2      0.00%    100.00% |           2      0.00%    100.00% # delay histogram for vnet_0 (Unspecified)
system.cache_hierarchy.ruby_system.delayVCHist.vnet_0::total    156746558                       # delay histogram for vnet_0 (Unspecified)
system.cache_hierarchy.ruby_system.delayVCHist.vnet_1::bucket_size            4                       # delay histogram for vnet_1 (Unspecified)
system.cache_hierarchy.ruby_system.delayVCHist.vnet_1::max_bucket           39                       # delay histogram for vnet_1 (Unspecified)
system.cache_hierarchy.ruby_system.delayVCHist.vnet_1::samples    149344572                       # delay histogram for vnet_1 (Unspecified)
system.cache_hierarchy.ruby_system.delayVCHist.vnet_1::mean     0.062229                       # delay histogram for vnet_1 (Unspecified)
system.cache_hierarchy.ruby_system.delayVCHist.vnet_1::stdev     0.616179                       # delay histogram for vnet_1 (Unspecified)
system.cache_hierarchy.ruby_system.delayVCHist.vnet_1 |   147988819     99.09%     99.09% |      898165      0.60%     99.69% |      456959      0.31%    100.00% |         340      0.00%    100.00% |         288      0.00%    100.00% |           1      0.00%    100.00% |           0      0.00%    100.00% |           0      0.00%    100.00% |           0      0.00%    100.00% |           0      0.00%    100.00% # delay histogram for vnet_1 (Unspecified)
system.cache_hierarchy.ruby_system.delayVCHist.vnet_1::total    149344572                       # delay histogram for vnet_1 (Unspecified)
system.cache_hierarchy.ruby_system.delayVCHist.vnet_2::bucket_size            1                       # delay histogram for vnet_2 (Unspecified)
system.cache_hierarchy.ruby_system.delayVCHist.vnet_2::max_bucket            9                       # delay histogram for vnet_2 (Unspecified)
system.cache_hierarchy.ruby_system.delayVCHist.vnet_2::samples      1190436                       # delay histogram for vnet_2 (Unspecified)
system.cache_hierarchy.ruby_system.delayVCHist.vnet_2::mean     0.000447                       # delay histogram for vnet_2 (Unspecified)
system.cache_hierarchy.ruby_system.delayVCHist.vnet_2::stdev     0.029893                       # delay histogram for vnet_2 (Unspecified)
system.cache_hierarchy.ruby_system.delayVCHist.vnet_2 |     1190170     99.98%     99.98% |           0      0.00%     99.98% |         266      0.02%    100.00% |           0      0.00%    100.00% |           0      0.00%    100.00% |           0      0.00%    100.00% |           0      0.00%    100.00% |           0      0.00%    100.00% |           0      0.00%    100.00% |           0      0.00%    100.00% # delay histogram for vnet_2 (Unspecified)
system.cache_hierarchy.ruby_system.delayVCHist.vnet_2::total      1190436                       # delay histogram for vnet_2 (Unspecified)
system.cache_hierarchy.ruby_system.Directory_Controller.Fetch |    11121954     50.00%     50.00% |    11122975     50.00%    100.00% (Unspecified)
system.cache_hierarchy.ruby_system.Directory_Controller.Fetch::total     22244929                       (Unspecified)
system.cache_hierarchy.ruby_system.Directory_Controller.Data |     3059198     49.91%     49.91% |     3069672     50.09%    100.00% (Unspecified)
system.cache_hierarchy.ruby_system.Directory_Controller.Data::total      6128870                       (Unspecified)
system.cache_hierarchy.ruby_system.Directory_Controller.Memory_Data |    11121953     50.00%     50.00% |    11122975     50.00%    100.00% (Unspecified)
system.cache_hierarchy.ruby_system.Directory_Controller.Memory_Data::total     22244928                       (Unspecified)
system.cache_hierarchy.ruby_system.Directory_Controller.Memory_Ack |     3059198     49.91%     49.91% |     3069672     50.09%    100.00% (Unspecified)
system.cache_hierarchy.ruby_system.Directory_Controller.Memory_Ack::total      6128870                       (Unspecified)
system.cache_hierarchy.ruby_system.Directory_Controller.CleanReplacement |     8062756     50.03%     50.03% |     8053303     49.97%    100.00% (Unspecified)
system.cache_hierarchy.ruby_system.Directory_Controller.CleanReplacement::total     16116059                       (Unspecified)
system.cache_hierarchy.ruby_system.Directory_Controller.I.Fetch |    11121954     50.00%     50.00% |    11122975     50.00%    100.00% (Unspecified)
system.cache_hierarchy.ruby_system.Directory_Controller.I.Fetch::total     22244929                       (Unspecified)
system.cache_hierarchy.ruby_system.Directory_Controller.M.Data |     3059198     49.91%     49.91% |     3069672     50.09%    100.00% (Unspecified)
system.cache_hierarchy.ruby_system.Directory_Controller.M.Data::total      6128870                       (Unspecified)
system.cache_hierarchy.ruby_system.Directory_Controller.M.CleanReplacement |     8062756     50.03%     50.03% |     8053303     49.97%    100.00% (Unspecified)
system.cache_hierarchy.ruby_system.Directory_Controller.M.CleanReplacement::total     16116059                       (Unspecified)
system.cache_hierarchy.ruby_system.Directory_Controller.IM.Memory_Data |    11121953     50.00%     50.00% |    11122975     50.00%    100.00% (Unspecified)
system.cache_hierarchy.ruby_system.Directory_Controller.IM.Memory_Data::total     22244928                       (Unspecified)
system.cache_hierarchy.ruby_system.Directory_Controller.MI.Memory_Ack |     3059198     49.91%     49.91% |     3069672     50.09%    100.00% (Unspecified)
system.cache_hierarchy.ruby_system.Directory_Controller.MI.Memory_Ack::total      6128870                       (Unspecified)
system.cache_hierarchy.ruby_system.L1Cache_Controller.Load |   196508567     50.01%     50.01% |   196394502     49.99%    100.00% (Unspecified)
system.cache_hierarchy.ruby_system.L1Cache_Controller.Load::total    392903069                       (Unspecified)
system.cache_hierarchy.ruby_system.L1Cache_Controller.Ifetch |    84421383     49.99%     49.99% |    84458791     50.01%    100.00% (Unspecified)
system.cache_hierarchy.ruby_system.L1Cache_Controller.Ifetch::total    168880174                       (Unspecified)
system.cache_hierarchy.ruby_system.L1Cache_Controller.Store |   255946004     50.00%     50.00% |   255917785     50.00%    100.00% (Unspecified)
system.cache_hierarchy.ruby_system.L1Cache_Controller.Store::total    511863789                       (Unspecified)
system.cache_hierarchy.ruby_system.L1Cache_Controller.Inv |      276407     52.13%     52.13% |      253800     47.87%    100.00% (Unspecified)
system.cache_hierarchy.ruby_system.L1Cache_Controller.Inv::total       530207                       (Unspecified)
system.cache_hierarchy.ruby_system.L1Cache_Controller.L1_Replacement |    20905160     50.03%     50.03% |    20877147     49.97%    100.00% (Unspecified)
system.cache_hierarchy.ruby_system.L1Cache_Controller.L1_Replacement::total     41782307                       (Unspecified)
system.cache_hierarchy.ruby_system.L1Cache_Controller.PF_L1_Replacement |     4941332     50.00%     50.00% |     4941304     50.00%    100.00% (Unspecified)
system.cache_hierarchy.ruby_system.L1Cache_Controller.PF_L1_Replacement::total      9882636                       (Unspecified)
system.cache_hierarchy.ruby_system.L1Cache_Controller.Fwd_GETX |      318942     49.91%     49.91% |      320113     50.09%    100.00% (Unspecified)
system.cache_hierarchy.ruby_system.L1Cache_Controller.Fwd_GETX::total       639055                       (Unspecified)
system.cache_hierarchy.ruby_system.L1Cache_Controller.Fwd_GETS |       10568     49.91%     49.91% |       10606     50.09%    100.00% (Unspecified)
system.cache_hierarchy.ruby_system.L1Cache_Controller.Fwd_GETS::total        21174                       (Unspecified)
system.cache_hierarchy.ruby_system.L1Cache_Controller.Data_Exclusive |     8395326     50.00%     50.00% |     8393764     50.00%    100.00% (Unspecified)
system.cache_hierarchy.ruby_system.L1Cache_Controller.Data_Exclusive::total     16789090                       (Unspecified)
system.cache_hierarchy.ruby_system.L1Cache_Controller.DataS_fromL1 |       10606     50.09%     50.09% |       10568     49.91%    100.00% (Unspecified)
system.cache_hierarchy.ruby_system.L1Cache_Controller.DataS_fromL1::total        21174                       (Unspecified)
system.cache_hierarchy.ruby_system.L1Cache_Controller.Data_all_Acks |    17995255     50.07%     50.07% |    17945669     49.93%    100.00% (Unspecified)
system.cache_hierarchy.ruby_system.L1Cache_Controller.Data_all_Acks::total     35940924                       (Unspecified)
system.cache_hierarchy.ruby_system.L1Cache_Controller.Ack |        4717     49.37%     49.37% |        4837     50.63%    100.00% (Unspecified)
system.cache_hierarchy.ruby_system.L1Cache_Controller.Ack::total         9554                       (Unspecified)
system.cache_hierarchy.ruby_system.L1Cache_Controller.Ack_all |        4717     49.37%     49.37% |        4837     50.63%    100.00% (Unspecified)
system.cache_hierarchy.ruby_system.L1Cache_Controller.Ack_all::total         9554                       (Unspecified)
system.cache_hierarchy.ruby_system.L1Cache_Controller.WB_Ack |    25785619     50.03%     50.03% |    25756974     49.97%    100.00% (Unspecified)
system.cache_hierarchy.ruby_system.L1Cache_Controller.WB_Ack::total     51542593                       (Unspecified)
system.cache_hierarchy.ruby_system.L1Cache_Controller.PF_Load |     4818694     49.99%     49.99% |     4821582     50.01%    100.00% (Unspecified)
system.cache_hierarchy.ruby_system.L1Cache_Controller.PF_Load::total      9640276                       (Unspecified)
system.cache_hierarchy.ruby_system.L1Cache_Controller.PF_Ifetch |       10011     56.80%     56.80% |        7615     43.20%    100.00% (Unspecified)
system.cache_hierarchy.ruby_system.L1Cache_Controller.PF_Ifetch::total        17626                       (Unspecified)
system.cache_hierarchy.ruby_system.L1Cache_Controller.PF_Store |      128121     50.63%     50.63% |      124909     49.37%    100.00% (Unspecified)
system.cache_hierarchy.ruby_system.L1Cache_Controller.PF_Store::total       253030                       (Unspecified)
system.cache_hierarchy.ruby_system.L1Cache_Controller.NP.Load |     3559619     50.05%     50.05% |     3552417     49.95%    100.00% (Unspecified)
system.cache_hierarchy.ruby_system.L1Cache_Controller.NP.Load::total      7112036                       (Unspecified)
system.cache_hierarchy.ruby_system.L1Cache_Controller.NP.Ifetch |        1444     19.68%     19.68% |        5894     80.32%    100.00% (Unspecified)
system.cache_hierarchy.ruby_system.L1Cache_Controller.NP.Ifetch::total         7338                       (Unspecified)
system.cache_hierarchy.ruby_system.L1Cache_Controller.NP.Store |    17344081     50.04%     50.04% |    17318829     49.96%    100.00% (Unspecified)
system.cache_hierarchy.ruby_system.L1Cache_Controller.NP.Store::total     34662910                       (Unspecified)
system.cache_hierarchy.ruby_system.L1Cache_Controller.NP.Inv |       11910     47.39%     47.39% |       13223     52.61%    100.00% (Unspecified)
system.cache_hierarchy.ruby_system.L1Cache_Controller.NP.Inv::total        25133                       (Unspecified)
system.cache_hierarchy.ruby_system.L1Cache_Controller.NP.PF_Load |     4818687     49.99%     49.99% |     4821532     50.01%    100.00% (Unspecified)
system.cache_hierarchy.ruby_system.L1Cache_Controller.NP.PF_Load::total      9640219                       (Unspecified)
system.cache_hierarchy.ruby_system.L1Cache_Controller.NP.PF_Ifetch |         142     26.20%     26.20% |         400     73.80%    100.00% (Unspecified)
system.cache_hierarchy.ruby_system.L1Cache_Controller.NP.PF_Ifetch::total          542                       (Unspecified)
system.cache_hierarchy.ruby_system.L1Cache_Controller.NP.PF_Store |      122502     50.65%     50.65% |      119372     49.35%    100.00% (Unspecified)
system.cache_hierarchy.ruby_system.L1Cache_Controller.NP.PF_Store::total       241874                       (Unspecified)
system.cache_hierarchy.ruby_system.L1Cache_Controller.I.Load |       48351     49.39%     49.39% |       49554     50.61%    100.00% (Unspecified)
system.cache_hierarchy.ruby_system.L1Cache_Controller.I.Load::total        97905                       (Unspecified)
system.cache_hierarchy.ruby_system.L1Cache_Controller.I.Ifetch |      137776     54.34%     54.34% |      115767     45.66%    100.00% (Unspecified)
system.cache_hierarchy.ruby_system.L1Cache_Controller.I.Ifetch::total       253543                       (Unspecified)
system.cache_hierarchy.ruby_system.L1Cache_Controller.I.Store |      358766     49.97%     49.97% |      359164     50.03%    100.00% (Unspecified)
system.cache_hierarchy.ruby_system.L1Cache_Controller.I.Store::total       717930                       (Unspecified)
system.cache_hierarchy.ruby_system.L1Cache_Controller.I.L1_Replacement |       17431     46.41%     46.41% |       20130     53.59%    100.00% (Unspecified)
system.cache_hierarchy.ruby_system.L1Cache_Controller.I.L1_Replacement::total        37561                       (Unspecified)
system.cache_hierarchy.ruby_system.L1Cache_Controller.I.PF_L1_Replacement |       11072     55.44%     55.44% |        8899     44.56%    100.00% (Unspecified)
system.cache_hierarchy.ruby_system.L1Cache_Controller.I.PF_L1_Replacement::total        19971                       (Unspecified)
system.cache_hierarchy.ruby_system.L1Cache_Controller.I.PF_Load |           1      5.26%      5.26% |          18     94.74%    100.00% (Unspecified)
system.cache_hierarchy.ruby_system.L1Cache_Controller.I.PF_Load::total           19                       (Unspecified)
system.cache_hierarchy.ruby_system.L1Cache_Controller.I.PF_Ifetch |        9431     58.27%     58.27% |        6753     41.73%    100.00% (Unspecified)
system.cache_hierarchy.ruby_system.L1Cache_Controller.I.PF_Ifetch::total        16184                       (Unspecified)
system.cache_hierarchy.ruby_system.L1Cache_Controller.I.PF_Store |         139     65.88%     65.88% |          72     34.12%    100.00% (Unspecified)
system.cache_hierarchy.ruby_system.L1Cache_Controller.I.PF_Store::total          211                       (Unspecified)
system.cache_hierarchy.ruby_system.L1Cache_Controller.S.Load |      531363     54.13%     54.13% |      450322     45.87%    100.00% (Unspecified)
system.cache_hierarchy.ruby_system.L1Cache_Controller.S.Load::total       981685                       (Unspecified)
system.cache_hierarchy.ruby_system.L1Cache_Controller.S.Ifetch |    84278065     49.98%     49.98% |    84334407     50.02%    100.00% (Unspecified)
system.cache_hierarchy.ruby_system.L1Cache_Controller.S.Ifetch::total    168612472                       (Unspecified)
system.cache_hierarchy.ruby_system.L1Cache_Controller.S.Store |        4965     49.49%     49.49% |        5067     50.51%    100.00% (Unspecified)
system.cache_hierarchy.ruby_system.L1Cache_Controller.S.Store::total        10032                       (Unspecified)
system.cache_hierarchy.ruby_system.L1Cache_Controller.S.Inv |      153702     53.83%     53.83% |      131832     46.17%    100.00% (Unspecified)
system.cache_hierarchy.ruby_system.L1Cache_Controller.S.Inv::total       285534                       (Unspecified)
system.cache_hierarchy.ruby_system.L1Cache_Controller.S.L1_Replacement |       17120     49.62%     49.62% |       17380     50.38%    100.00% (Unspecified)
system.cache_hierarchy.ruby_system.L1Cache_Controller.S.L1_Replacement::total        34500                       (Unspecified)
system.cache_hierarchy.ruby_system.L1Cache_Controller.S.PF_L1_Replacement |       15233     50.28%     50.28% |       15061     49.72%    100.00% (Unspecified)
system.cache_hierarchy.ruby_system.L1Cache_Controller.S.PF_L1_Replacement::total        30294                       (Unspecified)
system.cache_hierarchy.ruby_system.L1Cache_Controller.S.PF_Load |           5    100.00%    100.00% |           0      0.00%    100.00% (Unspecified)
system.cache_hierarchy.ruby_system.L1Cache_Controller.S.PF_Load::total            5                       (Unspecified)
system.cache_hierarchy.ruby_system.L1Cache_Controller.S.PF_Ifetch |         436     48.55%     48.55% |         462     51.45%    100.00% (Unspecified)
system.cache_hierarchy.ruby_system.L1Cache_Controller.S.PF_Ifetch::total          898                       (Unspecified)
system.cache_hierarchy.ruby_system.L1Cache_Controller.S.PF_Store |           0      0.00%      0.00% |           5    100.00%    100.00% (Unspecified)
system.cache_hierarchy.ruby_system.L1Cache_Controller.S.PF_Store::total            5                       (Unspecified)
system.cache_hierarchy.ruby_system.L1Cache_Controller.E.Load |   144723175     50.00%     50.00% |   144732153     50.00%    100.00% (Unspecified)
system.cache_hierarchy.ruby_system.L1Cache_Controller.E.Load::total    289455328                       (Unspecified)
system.cache_hierarchy.ruby_system.L1Cache_Controller.E.Store |      443929     50.30%     50.30% |      438557     49.70%    100.00% (Unspecified)
system.cache_hierarchy.ruby_system.L1Cache_Controller.E.Store::total       882486                       (Unspecified)
system.cache_hierarchy.ruby_system.L1Cache_Controller.E.Inv |        9367     49.81%     49.81% |        9439     50.19%    100.00% (Unspecified)
system.cache_hierarchy.ruby_system.L1Cache_Controller.E.Inv::total        18806                       (Unspecified)
system.cache_hierarchy.ruby_system.L1Cache_Controller.E.L1_Replacement |     3186881     50.01%     50.01% |     3186217     49.99%    100.00% (Unspecified)
system.cache_hierarchy.ruby_system.L1Cache_Controller.E.L1_Replacement::total      6373098                       (Unspecified)
system.cache_hierarchy.ruby_system.L1Cache_Controller.E.PF_L1_Replacement |     4749907     49.98%     49.98% |     4754179     50.02%    100.00% (Unspecified)
system.cache_hierarchy.ruby_system.L1Cache_Controller.E.PF_L1_Replacement::total      9504086                       (Unspecified)
system.cache_hierarchy.ruby_system.L1Cache_Controller.E.Fwd_GETX |          42    100.00%    100.00% |           0      0.00%    100.00% (Unspecified)
system.cache_hierarchy.ruby_system.L1Cache_Controller.E.Fwd_GETX::total           42                       (Unspecified)
system.cache_hierarchy.ruby_system.L1Cache_Controller.E.Fwd_GETS |        5201     48.85%     48.85% |        5446     51.15%    100.00% (Unspecified)
system.cache_hierarchy.ruby_system.L1Cache_Controller.E.Fwd_GETS::total        10647                       (Unspecified)
system.cache_hierarchy.ruby_system.L1Cache_Controller.E.PF_Store |          10     47.62%     47.62% |          11     52.38%    100.00% (Unspecified)
system.cache_hierarchy.ruby_system.L1Cache_Controller.E.PF_Store::total           21                       (Unspecified)
system.cache_hierarchy.ruby_system.L1Cache_Controller.M.Load |    43906599     50.04%     50.04% |    43836116     49.96%    100.00% (Unspecified)
system.cache_hierarchy.ruby_system.L1Cache_Controller.M.Load::total     87742715                       (Unspecified)
system.cache_hierarchy.ruby_system.L1Cache_Controller.M.Store |   237708153     50.00%     50.00% |   237713871     50.00%    100.00% (Unspecified)
system.cache_hierarchy.ruby_system.L1Cache_Controller.M.Store::total    475422024                       (Unspecified)
system.cache_hierarchy.ruby_system.L1Cache_Controller.M.Inv |      101173     50.53%     50.53% |       99070     49.47%    100.00% (Unspecified)
system.cache_hierarchy.ruby_system.L1Cache_Controller.M.Inv::total       200243                       (Unspecified)
system.cache_hierarchy.ruby_system.L1Cache_Controller.M.L1_Replacement |    17683712     50.04%     50.04% |    17653413     49.96%    100.00% (Unspecified)
system.cache_hierarchy.ruby_system.L1Cache_Controller.M.L1_Replacement::total     35337125                       (Unspecified)
system.cache_hierarchy.ruby_system.L1Cache_Controller.M.PF_L1_Replacement |      165119     50.30%     50.30% |      163165     49.70%    100.00% (Unspecified)
system.cache_hierarchy.ruby_system.L1Cache_Controller.M.PF_L1_Replacement::total       328284                       (Unspecified)
system.cache_hierarchy.ruby_system.L1Cache_Controller.M.Fwd_GETX |      318900     49.91%     49.91% |      320113     50.09%    100.00% (Unspecified)
system.cache_hierarchy.ruby_system.L1Cache_Controller.M.Fwd_GETX::total       639013                       (Unspecified)
system.cache_hierarchy.ruby_system.L1Cache_Controller.M.Fwd_GETS |        5366     50.98%     50.98% |        5160     49.02%    100.00% (Unspecified)
system.cache_hierarchy.ruby_system.L1Cache_Controller.M.Fwd_GETS::total        10526                       (Unspecified)
system.cache_hierarchy.ruby_system.L1Cache_Controller.M.PF_Load |           1      3.03%      3.03% |          32     96.97%    100.00% (Unspecified)
system.cache_hierarchy.ruby_system.L1Cache_Controller.M.PF_Load::total           33                       (Unspecified)
system.cache_hierarchy.ruby_system.L1Cache_Controller.M.PF_Store |        5468     50.10%     50.10% |        5446     49.90%    100.00% (Unspecified)
system.cache_hierarchy.ruby_system.L1Cache_Controller.M.PF_Store::total        10914                       (Unspecified)
system.cache_hierarchy.ruby_system.L1Cache_Controller.IS.L1_Replacement |          15     68.18%     68.18% |           7     31.82%    100.00% (Unspecified)
system.cache_hierarchy.ruby_system.L1Cache_Controller.IS.L1_Replacement::total           22                       (Unspecified)
system.cache_hierarchy.ruby_system.L1Cache_Controller.IS.Data_Exclusive |     7317629     49.90%     49.90% |     7347392     50.10%    100.00% (Unspecified)
system.cache_hierarchy.ruby_system.L1Cache_Controller.IS.Data_Exclusive::total     14665021                       (Unspecified)
system.cache_hierarchy.ruby_system.L1Cache_Controller.IS.DataS_fromL1 |        8360     49.33%     49.33% |        8586     50.67%    100.00% (Unspecified)
system.cache_hierarchy.ruby_system.L1Cache_Controller.IS.DataS_fromL1::total        16946                       (Unspecified)
system.cache_hierarchy.ruby_system.L1Cache_Controller.IS.Data_all_Acks |      163993     53.32%     53.32% |      143545     46.68%    100.00% (Unspecified)
system.cache_hierarchy.ruby_system.L1Cache_Controller.IS.Data_all_Acks::total       307538                       (Unspecified)
system.cache_hierarchy.ruby_system.L1Cache_Controller.IS.PF_Ifetch |           2    100.00%    100.00% |           0      0.00%    100.00% (Unspecified)
system.cache_hierarchy.ruby_system.L1Cache_Controller.IS.PF_Ifetch::total            2                       (Unspecified)
system.cache_hierarchy.ruby_system.L1Cache_Controller.IM.L1_Replacement |           1    100.00%    100.00% |           0      0.00%    100.00% (Unspecified)
system.cache_hierarchy.ruby_system.L1Cache_Controller.IM.L1_Replacement::total            1                       (Unspecified)
system.cache_hierarchy.ruby_system.L1Cache_Controller.IM.PF_L1_Replacement |           1    100.00%    100.00% |           0      0.00%    100.00% (Unspecified)
system.cache_hierarchy.ruby_system.L1Cache_Controller.IM.PF_L1_Replacement::total            1                       (Unspecified)
system.cache_hierarchy.ruby_system.L1Cache_Controller.IM.Data_all_Acks |    17787464     50.04%     50.04% |    17758775     49.96%    100.00% (Unspecified)
system.cache_hierarchy.ruby_system.L1Cache_Controller.IM.Data_all_Acks::total     35546239                       (Unspecified)
system.cache_hierarchy.ruby_system.L1Cache_Controller.IM.PF_Store |           2     40.00%     40.00% |           3     60.00%    100.00% (Unspecified)
system.cache_hierarchy.ruby_system.L1Cache_Controller.IM.PF_Store::total            5                       (Unspecified)
system.cache_hierarchy.ruby_system.L1Cache_Controller.SM.Inv |         248     51.88%     51.88% |         230     48.12%    100.00% (Unspecified)
system.cache_hierarchy.ruby_system.L1Cache_Controller.SM.Inv::total          478                       (Unspecified)
system.cache_hierarchy.ruby_system.L1Cache_Controller.SM.Ack |        4717     49.37%     49.37% |        4837     50.63%    100.00% (Unspecified)
system.cache_hierarchy.ruby_system.L1Cache_Controller.SM.Ack::total         9554                       (Unspecified)
system.cache_hierarchy.ruby_system.L1Cache_Controller.SM.Ack_all |        4717     49.37%     49.37% |        4837     50.63%    100.00% (Unspecified)
system.cache_hierarchy.ruby_system.L1Cache_Controller.SM.Ack_all::total         9554                       (Unspecified)
system.cache_hierarchy.ruby_system.L1Cache_Controller.M_I.Load |         766     49.84%     49.84% |         771     50.16%    100.00% (Unspecified)
system.cache_hierarchy.ruby_system.L1Cache_Controller.M_I.Load::total         1537                       (Unspecified)
system.cache_hierarchy.ruby_system.L1Cache_Controller.M_I.Store |        1741     49.94%     49.94% |        1745     50.06%    100.00% (Unspecified)
system.cache_hierarchy.ruby_system.L1Cache_Controller.M_I.Store::total         3486                       (Unspecified)
system.cache_hierarchy.ruby_system.L1Cache_Controller.M_I.Inv |           7     53.85%     53.85% |           6     46.15%    100.00% (Unspecified)
system.cache_hierarchy.ruby_system.L1Cache_Controller.M_I.Inv::total           13                       (Unspecified)
system.cache_hierarchy.ruby_system.L1Cache_Controller.M_I.Fwd_GETS |           1    100.00%    100.00% |           0      0.00%    100.00% (Unspecified)
system.cache_hierarchy.ruby_system.L1Cache_Controller.M_I.Fwd_GETS::total            1                       (Unspecified)
system.cache_hierarchy.ruby_system.L1Cache_Controller.M_I.WB_Ack |    25785611     50.03%     50.03% |    25756968     49.97%    100.00% (Unspecified)
system.cache_hierarchy.ruby_system.L1Cache_Controller.M_I.WB_Ack::total     51542579                       (Unspecified)
system.cache_hierarchy.ruby_system.L1Cache_Controller.SINK_WB_ACK.WB_Ack |           8     57.14%     57.14% |           6     42.86%    100.00% (Unspecified)
system.cache_hierarchy.ruby_system.L1Cache_Controller.SINK_WB_ACK.WB_Ack::total           14                       (Unspecified)
system.cache_hierarchy.ruby_system.L1Cache_Controller.PF_IS.Load |     3738694     49.77%     49.77% |     3773169     50.23%    100.00% (Unspecified)
system.cache_hierarchy.ruby_system.L1Cache_Controller.PF_IS.Load::total      7511863                       (Unspecified)
system.cache_hierarchy.ruby_system.L1Cache_Controller.PF_IS.Ifetch |        4098     60.08%     60.08% |        2723     39.92%    100.00% (Unspecified)
system.cache_hierarchy.ruby_system.L1Cache_Controller.PF_IS.Ifetch::total         6821                       (Unspecified)
system.cache_hierarchy.ruby_system.L1Cache_Controller.PF_IS.Data_Exclusive |     1077697     50.74%     50.74% |     1046372     49.26%    100.00% (Unspecified)
system.cache_hierarchy.ruby_system.L1Cache_Controller.PF_IS.Data_Exclusive::total      2124069                       (Unspecified)
system.cache_hierarchy.ruby_system.L1Cache_Controller.PF_IS.DataS_fromL1 |        2246     53.12%     53.12% |        1982     46.88%    100.00% (Unspecified)
system.cache_hierarchy.ruby_system.L1Cache_Controller.PF_IS.DataS_fromL1::total         4228                       (Unspecified)
system.cache_hierarchy.ruby_system.L1Cache_Controller.PF_IS.Data_all_Acks |        5526     55.35%     55.35% |        4457     44.65%    100.00% (Unspecified)
system.cache_hierarchy.ruby_system.L1Cache_Controller.PF_IS.Data_all_Acks::total         9983                       (Unspecified)
system.cache_hierarchy.ruby_system.L1Cache_Controller.PF_IM.Store |       84369     51.16%     51.16% |       80552     48.84%    100.00% (Unspecified)
system.cache_hierarchy.ruby_system.L1Cache_Controller.PF_IM.Store::total       164921                       (Unspecified)
system.cache_hierarchy.ruby_system.L1Cache_Controller.PF_IM.Data_all_Acks |       38272     49.60%     49.60% |       38892     50.40%    100.00% (Unspecified)
system.cache_hierarchy.ruby_system.L1Cache_Controller.PF_IM.Data_all_Acks::total        77164                       (Unspecified)
system.cache_hierarchy.ruby_system.L2Cache_Controller.L1_GET_INSTR |      139428     49.80%     49.80% |      140529     50.20%    100.00% (Unspecified)
system.cache_hierarchy.ruby_system.L2Cache_Controller.L1_GET_INSTR::total       279957                       (Unspecified)
system.cache_hierarchy.ruby_system.L2Cache_Controller.L1_GETS |     8439009     50.07%     50.07% |     8415587     49.93%    100.00% (Unspecified)
system.cache_hierarchy.ruby_system.L2Cache_Controller.L1_GETS::total     16854596                       (Unspecified)
system.cache_hierarchy.ruby_system.L2Cache_Controller.L1_GETX |    17497952     49.08%     49.08% |    18152452     50.92%    100.00% (Unspecified)
system.cache_hierarchy.ruby_system.L2Cache_Controller.L1_GETX::total     35650404                       (Unspecified)
system.cache_hierarchy.ruby_system.L2Cache_Controller.L1_UPGRADE |          73      0.72%      0.72% |       10134     99.28%    100.00% (Unspecified)
system.cache_hierarchy.ruby_system.L2Cache_Controller.L1_UPGRADE::total        10207                       (Unspecified)
system.cache_hierarchy.ruby_system.L2Cache_Controller.L1_PUTX |    25781891     50.02%     50.02% |    25760689     49.98%    100.00% (Unspecified)
system.cache_hierarchy.ruby_system.L2Cache_Controller.L1_PUTX::total     51542580                       (Unspecified)
system.cache_hierarchy.ruby_system.L2Cache_Controller.L1_PUTX_old |          14     53.85%     53.85% |          12     46.15%    100.00% (Unspecified)
system.cache_hierarchy.ruby_system.L2Cache_Controller.L1_PUTX_old::total           26                       (Unspecified)
system.cache_hierarchy.ruby_system.L2Cache_Controller.L2_Replacement |     2985180     49.93%     49.93% |     2993053     50.07%    100.00% (Unspecified)
system.cache_hierarchy.ruby_system.L2Cache_Controller.L2_Replacement::total      5978233                       (Unspecified)
system.cache_hierarchy.ruby_system.L2Cache_Controller.L2_Replacement_clean |     8136774     50.02%     50.02% |     8129922     49.98%    100.00% (Unspecified)
system.cache_hierarchy.ruby_system.L2Cache_Controller.L2_Replacement_clean::total     16266696                       (Unspecified)
system.cache_hierarchy.ruby_system.L2Cache_Controller.Mem_Data |    11121953     50.00%     50.00% |    11122975     50.00%    100.00% (Unspecified)
system.cache_hierarchy.ruby_system.L2Cache_Controller.Mem_Data::total     22244928                       (Unspecified)
system.cache_hierarchy.ruby_system.L2Cache_Controller.Mem_Ack |    11121953     50.00%     50.00% |    11122975     50.00%    100.00% (Unspecified)
system.cache_hierarchy.ruby_system.L2Cache_Controller.Mem_Ack::total     22244928                       (Unspecified)
system.cache_hierarchy.ruby_system.L2Cache_Controller.WB_Data |       99101     47.02%     47.02% |      111680     52.98%    100.00% (Unspecified)
system.cache_hierarchy.ruby_system.L2Cache_Controller.WB_Data::total       210781                       (Unspecified)
system.cache_hierarchy.ruby_system.L2Cache_Controller.WB_Data_clean |        5641     52.97%     52.97% |        5008     47.03%    100.00% (Unspecified)
system.cache_hierarchy.ruby_system.L2Cache_Controller.WB_Data_clean::total        10649                       (Unspecified)
system.cache_hierarchy.ruby_system.L2Cache_Controller.Ack |       21219     49.77%     49.77% |       21415     50.23%    100.00% (Unspecified)
system.cache_hierarchy.ruby_system.L2Cache_Controller.Ack::total        42634                       (Unspecified)
system.cache_hierarchy.ruby_system.L2Cache_Controller.Ack_all |      139705     50.30%     50.30% |      138058     49.70%    100.00% (Unspecified)
system.cache_hierarchy.ruby_system.L2Cache_Controller.Ack_all::total       277763                       (Unspecified)
system.cache_hierarchy.ruby_system.L2Cache_Controller.Unblock |        6193     29.25%     29.25% |       14981     70.75%    100.00% (Unspecified)
system.cache_hierarchy.ruby_system.L2Cache_Controller.Unblock::total        21174                       (Unspecified)
system.cache_hierarchy.ruby_system.L2Cache_Controller.Exclusive_Unblock |    25896831     49.40%     49.40% |    26525217     50.60%    100.00% (Unspecified)
system.cache_hierarchy.ruby_system.L2Cache_Controller.Exclusive_Unblock::total     52422048                       (Unspecified)
system.cache_hierarchy.ruby_system.L2Cache_Controller.NP.L1_GET_INSTR |      123214     49.95%     49.95% |      123448     50.05%    100.00% (Unspecified)
system.cache_hierarchy.ruby_system.L2Cache_Controller.NP.L1_GET_INSTR::total       246662                       (Unspecified)
system.cache_hierarchy.ruby_system.L2Cache_Controller.NP.L1_GETS |     7990178     50.00%     50.00% |     7988826     50.00%    100.00% (Unspecified)
system.cache_hierarchy.ruby_system.L2Cache_Controller.NP.L1_GETS::total     15979004                       (Unspecified)
system.cache_hierarchy.ruby_system.L2Cache_Controller.NP.L1_GETX |     3008562     49.98%     49.98% |     3010701     50.02%    100.00% (Unspecified)
system.cache_hierarchy.ruby_system.L2Cache_Controller.NP.L1_GETX::total      6019263                       (Unspecified)
system.cache_hierarchy.ruby_system.L2Cache_Controller.NP.L1_PUTX_old |           7     53.85%     53.85% |           6     46.15%    100.00% (Unspecified)
system.cache_hierarchy.ruby_system.L2Cache_Controller.NP.L1_PUTX_old::total           13                       (Unspecified)
system.cache_hierarchy.ruby_system.L2Cache_Controller.SS.L1_GET_INSTR |       14267     48.70%     48.70% |       15028     51.30%    100.00% (Unspecified)
system.cache_hierarchy.ruby_system.L2Cache_Controller.SS.L1_GET_INSTR::total        29295                       (Unspecified)
system.cache_hierarchy.ruby_system.L2Cache_Controller.SS.L1_GETS |       26711     67.87%     67.87% |       12644     32.13%    100.00% (Unspecified)
system.cache_hierarchy.ruby_system.L2Cache_Controller.SS.L1_GETS::total        39355                       (Unspecified)
system.cache_hierarchy.ruby_system.L2Cache_Controller.SS.L1_UPGRADE |          73      0.76%      0.76% |        9481     99.24%    100.00% (Unspecified)
system.cache_hierarchy.ruby_system.L2Cache_Controller.SS.L1_UPGRADE::total         9554                       (Unspecified)
system.cache_hierarchy.ruby_system.L2Cache_Controller.SS.L2_Replacement |         727     51.16%     51.16% |         694     48.84%    100.00% (Unspecified)
system.cache_hierarchy.ruby_system.L2Cache_Controller.SS.L2_Replacement::total         1421                       (Unspecified)
system.cache_hierarchy.ruby_system.L2Cache_Controller.SS.L2_Replacement_clean |      128960     50.07%     50.07% |      128576     49.93%    100.00% (Unspecified)
system.cache_hierarchy.ruby_system.L2Cache_Controller.SS.L2_Replacement_clean::total       257536                       (Unspecified)
system.cache_hierarchy.ruby_system.L2Cache_Controller.M.L1_GETS |      413765     51.06%     51.06% |      396601     48.94%    100.00% (Unspecified)
system.cache_hierarchy.ruby_system.L2Cache_Controller.M.L1_GETS::total       810366                       (Unspecified)
system.cache_hierarchy.ruby_system.L2Cache_Controller.M.L1_GETX |    14484304     50.01%     50.01% |    14480781     49.99%    100.00% (Unspecified)
system.cache_hierarchy.ruby_system.L2Cache_Controller.M.L1_GETX::total     28965085                       (Unspecified)
system.cache_hierarchy.ruby_system.L2Cache_Controller.M.L2_Replacement |     2959910     49.94%     49.94% |     2967271     50.06%    100.00% (Unspecified)
system.cache_hierarchy.ruby_system.L2Cache_Controller.M.L2_Replacement::total      5927181                       (Unspecified)
system.cache_hierarchy.ruby_system.L2Cache_Controller.M.L2_Replacement_clean |     7923790     50.02%     50.02% |     7915939     49.98%    100.00% (Unspecified)
system.cache_hierarchy.ruby_system.L2Cache_Controller.M.L2_Replacement_clean::total     15839729                       (Unspecified)
system.cache_hierarchy.ruby_system.L2Cache_Controller.MT.L1_GETS |        6193     29.25%     29.25% |       14981     70.75%    100.00% (Unspecified)
system.cache_hierarchy.ruby_system.L2Cache_Controller.MT.L1_GETS::total        21174                       (Unspecified)
system.cache_hierarchy.ruby_system.L2Cache_Controller.MT.L1_GETX |          88      0.01%      0.01% |      638967     99.99%    100.00% (Unspecified)
system.cache_hierarchy.ruby_system.L2Cache_Controller.MT.L1_GETX::total       639055                       (Unspecified)
system.cache_hierarchy.ruby_system.L2Cache_Controller.MT.L1_PUTX |    25781891     50.02%     50.02% |    25760688     49.98%    100.00% (Unspecified)
system.cache_hierarchy.ruby_system.L2Cache_Controller.MT.L1_PUTX::total     51542579                       (Unspecified)
system.cache_hierarchy.ruby_system.L2Cache_Controller.MT.L2_Replacement |       24543     49.45%     49.45% |       25088     50.55%    100.00% (Unspecified)
system.cache_hierarchy.ruby_system.L2Cache_Controller.MT.L2_Replacement::total        49631                       (Unspecified)
system.cache_hierarchy.ruby_system.L2Cache_Controller.MT.L2_Replacement_clean |       84024     49.59%     49.59% |       85407     50.41%    100.00% (Unspecified)
system.cache_hierarchy.ruby_system.L2Cache_Controller.MT.L2_Replacement_clean::total       169431                       (Unspecified)
system.cache_hierarchy.ruby_system.L2Cache_Controller.M_I.L1_GET_INSTR |        1172     49.94%     49.94% |        1175     50.06%    100.00% (Unspecified)
system.cache_hierarchy.ruby_system.L2Cache_Controller.M_I.L1_GET_INSTR::total         2347                       (Unspecified)
system.cache_hierarchy.ruby_system.L2Cache_Controller.M_I.L1_GETS |        1977     50.15%     50.15% |        1965     49.85%    100.00% (Unspecified)
system.cache_hierarchy.ruby_system.L2Cache_Controller.M_I.L1_GETS::total         3942                       (Unspecified)
system.cache_hierarchy.ruby_system.L2Cache_Controller.M_I.L1_GETX |        4996     53.03%     53.03% |        4425     46.97%    100.00% (Unspecified)
system.cache_hierarchy.ruby_system.L2Cache_Controller.M_I.L1_GETX::total         9421                       (Unspecified)
system.cache_hierarchy.ruby_system.L2Cache_Controller.M_I.Mem_Ack |    11121953     50.00%     50.00% |    11122975     50.00%    100.00% (Unspecified)
system.cache_hierarchy.ruby_system.L2Cache_Controller.M_I.Mem_Ack::total     22244928                       (Unspecified)
system.cache_hierarchy.ruby_system.L2Cache_Controller.MT_I.L1_PUTX_old |           7     63.64%     63.64% |           4     36.36%    100.00% (Unspecified)
system.cache_hierarchy.ruby_system.L2Cache_Controller.MT_I.L1_PUTX_old::total           11                       (Unspecified)
system.cache_hierarchy.ruby_system.L2Cache_Controller.MT_I.WB_Data |       24531     49.44%     49.44% |       25087     50.56%    100.00% (Unspecified)
system.cache_hierarchy.ruby_system.L2Cache_Controller.MT_I.WB_Data::total        49618                       (Unspecified)
system.cache_hierarchy.ruby_system.L2Cache_Controller.MT_I.Ack_all |          12     92.31%     92.31% |           1      7.69%    100.00% (Unspecified)
system.cache_hierarchy.ruby_system.L2Cache_Controller.MT_I.Ack_all::total           13                       (Unspecified)
system.cache_hierarchy.ruby_system.L2Cache_Controller.MCT_I.L1_PUTX_old |           0      0.00%      0.00% |           2    100.00%    100.00% (Unspecified)
system.cache_hierarchy.ruby_system.L2Cache_Controller.MCT_I.L1_PUTX_old::total            2                       (Unspecified)
system.cache_hierarchy.ruby_system.L2Cache_Controller.MCT_I.WB_Data |       74018     49.14%     49.14% |       76619     50.86%    100.00% (Unspecified)
system.cache_hierarchy.ruby_system.L2Cache_Controller.MCT_I.WB_Data::total       150637                       (Unspecified)
system.cache_hierarchy.ruby_system.L2Cache_Controller.MCT_I.WB_Data_clean |           0      0.00%      0.00% |           1    100.00%    100.00% (Unspecified)
system.cache_hierarchy.ruby_system.L2Cache_Controller.MCT_I.WB_Data_clean::total            1                       (Unspecified)
system.cache_hierarchy.ruby_system.L2Cache_Controller.MCT_I.Ack_all |       10006     53.24%     53.24% |        8787     46.76%    100.00% (Unspecified)
system.cache_hierarchy.ruby_system.L2Cache_Controller.MCT_I.Ack_all::total        18793                       (Unspecified)
system.cache_hierarchy.ruby_system.L2Cache_Controller.I_I.L1_GET_INSTR |           2     66.67%     66.67% |           1     33.33%    100.00% (Unspecified)
system.cache_hierarchy.ruby_system.L2Cache_Controller.I_I.L1_GET_INSTR::total            3                       (Unspecified)
system.cache_hierarchy.ruby_system.L2Cache_Controller.I_I.Ack |       20492     49.72%     49.72% |       20721     50.28%    100.00% (Unspecified)
system.cache_hierarchy.ruby_system.L2Cache_Controller.I_I.Ack::total        41213                       (Unspecified)
system.cache_hierarchy.ruby_system.L2Cache_Controller.I_I.Ack_all |      128960     50.07%     50.07% |      128576     49.93%    100.00% (Unspecified)
system.cache_hierarchy.ruby_system.L2Cache_Controller.I_I.Ack_all::total       257536                       (Unspecified)
system.cache_hierarchy.ruby_system.L2Cache_Controller.S_I.Ack |         727     51.16%     51.16% |         694     48.84%    100.00% (Unspecified)
system.cache_hierarchy.ruby_system.L2Cache_Controller.S_I.Ack::total         1421                       (Unspecified)
system.cache_hierarchy.ruby_system.L2Cache_Controller.S_I.Ack_all |         727     51.16%     51.16% |         694     48.84%    100.00% (Unspecified)
system.cache_hierarchy.ruby_system.L2Cache_Controller.S_I.Ack_all::total         1421                       (Unspecified)
system.cache_hierarchy.ruby_system.L2Cache_Controller.ISS.L1_GETS |         140     50.00%     50.00% |         140     50.00%    100.00% (Unspecified)
system.cache_hierarchy.ruby_system.L2Cache_Controller.ISS.L1_GETS::total          280                       (Unspecified)
system.cache_hierarchy.ruby_system.L2Cache_Controller.ISS.Mem_Data |     7990038     50.00%     50.00% |     7988686     50.00%    100.00% (Unspecified)
system.cache_hierarchy.ruby_system.L2Cache_Controller.ISS.Mem_Data::total     15978724                       (Unspecified)
system.cache_hierarchy.ruby_system.L2Cache_Controller.IS.L1_GET_INSTR |         773     46.85%     46.85% |         877     53.15%    100.00% (Unspecified)
system.cache_hierarchy.ruby_system.L2Cache_Controller.IS.L1_GET_INSTR::total         1650                       (Unspecified)
system.cache_hierarchy.ruby_system.L2Cache_Controller.IS.Mem_Data |      123353     49.95%     49.95% |      123588     50.05%    100.00% (Unspecified)
system.cache_hierarchy.ruby_system.L2Cache_Controller.IS.Mem_Data::total       246941                       (Unspecified)
system.cache_hierarchy.ruby_system.L2Cache_Controller.IM.L1_GETX |           1      0.15%      0.15% |         665     99.85%    100.00% (Unspecified)
system.cache_hierarchy.ruby_system.L2Cache_Controller.IM.L1_GETX::total          666                       (Unspecified)
system.cache_hierarchy.ruby_system.L2Cache_Controller.IM.Mem_Data |     3008562     49.98%     49.98% |     3010701     50.02%    100.00% (Unspecified)
system.cache_hierarchy.ruby_system.L2Cache_Controller.IM.Mem_Data::total      6019263                       (Unspecified)
system.cache_hierarchy.ruby_system.L2Cache_Controller.SS_MB.L1_GETS |          39     68.42%     68.42% |          18     31.58%    100.00% (Unspecified)
system.cache_hierarchy.ruby_system.L2Cache_Controller.SS_MB.L1_GETS::total           57                       (Unspecified)
system.cache_hierarchy.ruby_system.L2Cache_Controller.SS_MB.L1_GETX |           0      0.00%      0.00% |          79    100.00%    100.00% (Unspecified)
system.cache_hierarchy.ruby_system.L2Cache_Controller.SS_MB.L1_GETX::total           79                       (Unspecified)
system.cache_hierarchy.ruby_system.L2Cache_Controller.SS_MB.L1_UPGRADE |           0      0.00%      0.00% |         478    100.00%    100.00% (Unspecified)
system.cache_hierarchy.ruby_system.L2Cache_Controller.SS_MB.L1_UPGRADE::total          478                       (Unspecified)
system.cache_hierarchy.ruby_system.L2Cache_Controller.SS_MB.Exclusive_Unblock |          73      0.76%      0.76% |        9481     99.24%    100.00% (Unspecified)
system.cache_hierarchy.ruby_system.L2Cache_Controller.SS_MB.Exclusive_Unblock::total         9554                       (Unspecified)
system.cache_hierarchy.ruby_system.L2Cache_Controller.MT_MB.L1_GETS |           6      1.44%      1.44% |         412     98.56%    100.00% (Unspecified)
system.cache_hierarchy.ruby_system.L2Cache_Controller.MT_MB.L1_GETS::total          418                       (Unspecified)
system.cache_hierarchy.ruby_system.L2Cache_Controller.MT_MB.L1_GETX |           1      0.01%      0.01% |       16834     99.99%    100.00% (Unspecified)
system.cache_hierarchy.ruby_system.L2Cache_Controller.MT_MB.L1_GETX::total        16835                       (Unspecified)
system.cache_hierarchy.ruby_system.L2Cache_Controller.MT_MB.Exclusive_Unblock |    25896758     49.41%     49.41% |    26515736     50.59%    100.00% (Unspecified)
system.cache_hierarchy.ruby_system.L2Cache_Controller.MT_MB.Exclusive_Unblock::total     52412494                       (Unspecified)
system.cache_hierarchy.ruby_system.L2Cache_Controller.MT_IIB.WB_Data |         552      5.24%      5.24% |        9974     94.76%    100.00% (Unspecified)
system.cache_hierarchy.ruby_system.L2Cache_Controller.MT_IIB.WB_Data::total        10526                       (Unspecified)
system.cache_hierarchy.ruby_system.L2Cache_Controller.MT_IIB.WB_Data_clean |        5640     52.97%     52.97% |        5007     47.03%    100.00% (Unspecified)
system.cache_hierarchy.ruby_system.L2Cache_Controller.MT_IIB.WB_Data_clean::total        10647                       (Unspecified)
system.cache_hierarchy.ruby_system.L2Cache_Controller.MT_IIB.Unblock |           1    100.00%    100.00% |           0      0.00%    100.00% (Unspecified)
system.cache_hierarchy.ruby_system.L2Cache_Controller.MT_IIB.Unblock::total            1                       (Unspecified)
system.cache_hierarchy.ruby_system.L2Cache_Controller.MT_IB.WB_Data_clean |           1    100.00%    100.00% |           0      0.00%    100.00% (Unspecified)
system.cache_hierarchy.ruby_system.L2Cache_Controller.MT_IB.WB_Data_clean::total            1                       (Unspecified)
system.cache_hierarchy.ruby_system.L2Cache_Controller.MT_SB.L1_UPGRADE |           0      0.00%      0.00% |         175    100.00%    100.00% (Unspecified)
system.cache_hierarchy.ruby_system.L2Cache_Controller.MT_SB.L1_UPGRADE::total          175                       (Unspecified)
system.cache_hierarchy.ruby_system.L2Cache_Controller.MT_SB.L1_PUTX |           0      0.00%      0.00% |           1    100.00%    100.00% (Unspecified)
system.cache_hierarchy.ruby_system.L2Cache_Controller.MT_SB.L1_PUTX::total            1                       (Unspecified)
system.cache_hierarchy.ruby_system.L2Cache_Controller.MT_SB.Unblock |        6192     29.24%     29.24% |       14981     70.76%    100.00% (Unspecified)
system.cache_hierarchy.ruby_system.L2Cache_Controller.MT_SB.Unblock::total        21173                       (Unspecified)
system.cache_hierarchy.ruby_system.RequestType.LD.latency_hist_seqr::bucket_size          256                       (Unspecified)
system.cache_hierarchy.ruby_system.RequestType.LD.latency_hist_seqr::max_bucket         2559                       (Unspecified)
system.cache_hierarchy.ruby_system.RequestType.LD.latency_hist_seqr::samples    392901532                       (Unspecified)
system.cache_hierarchy.ruby_system.RequestType.LD.latency_hist_seqr::mean     5.601704                       (Unspecified)
system.cache_hierarchy.ruby_system.RequestType.LD.latency_hist_seqr::gmean     1.179141                       (Unspecified)
system.cache_hierarchy.ruby_system.RequestType.LD.latency_hist_seqr::stdev    35.018281                       (Unspecified)
system.cache_hierarchy.ruby_system.RequestType.LD.latency_hist_seqr |   392284961     99.84%     99.84% |      447704      0.11%     99.96% |       29801      0.01%     99.96% |       14217      0.00%     99.97% |      116453      0.03%    100.00% |        6859      0.00%    100.00% |        1530      0.00%    100.00% |           7      0.00%    100.00% |           0      0.00%    100.00% |           0      0.00%    100.00% (Unspecified)
system.cache_hierarchy.ruby_system.RequestType.LD.latency_hist_seqr::total    392901532                       (Unspecified)
system.cache_hierarchy.ruby_system.RequestType.LD.hit_latency_hist_seqr::bucket_size            1                       (Unspecified)
system.cache_hierarchy.ruby_system.RequestType.LD.hit_latency_hist_seqr::max_bucket            9                       (Unspecified)
system.cache_hierarchy.ruby_system.RequestType.LD.hit_latency_hist_seqr::samples    378179728                       (Unspecified)
system.cache_hierarchy.ruby_system.RequestType.LD.hit_latency_hist_seqr::mean     1.000024                       (Unspecified)
system.cache_hierarchy.ruby_system.RequestType.LD.hit_latency_hist_seqr::gmean     1.000016                       (Unspecified)
system.cache_hierarchy.ruby_system.RequestType.LD.hit_latency_hist_seqr::stdev     0.004849                       (Unspecified)
system.cache_hierarchy.ruby_system.RequestType.LD.hit_latency_hist_seqr |           0      0.00%      0.00% |   378170836    100.00%    100.00% |        8892      0.00%    100.00% |           0      0.00%    100.00% |           0      0.00%    100.00% |           0      0.00%    100.00% |           0      0.00%    100.00% |           0      0.00%    100.00% |           0      0.00%    100.00% |           0      0.00%    100.00% (Unspecified)
system.cache_hierarchy.ruby_system.RequestType.LD.hit_latency_hist_seqr::total    378179728                       (Unspecified)
system.cache_hierarchy.ruby_system.RequestType.LD.miss_latency_hist_seqr::bucket_size          256                       (Unspecified)
system.cache_hierarchy.ruby_system.RequestType.LD.miss_latency_hist_seqr::max_bucket         2559                       (Unspecified)
system.cache_hierarchy.ruby_system.RequestType.LD.miss_latency_hist_seqr::samples     14721804                       (Unspecified)
system.cache_hierarchy.ruby_system.RequestType.LD.miss_latency_hist_seqr::mean   123.811551                       (Unspecified)
system.cache_hierarchy.ruby_system.RequestType.LD.miss_latency_hist_seqr::gmean    81.244964                       (Unspecified)
system.cache_hierarchy.ruby_system.RequestType.LD.miss_latency_hist_seqr::stdev   134.944180                       (Unspecified)
system.cache_hierarchy.ruby_system.RequestType.LD.miss_latency_hist_seqr |    14105233     95.81%     95.81% |      447704      3.04%     98.85% |       29801      0.20%     99.06% |       14217      0.10%     99.15% |      116453      0.79%     99.94% |        6859      0.05%     99.99% |        1530      0.01%    100.00% |           7      0.00%    100.00% |           0      0.00%    100.00% |           0      0.00%    100.00% (Unspecified)
system.cache_hierarchy.ruby_system.RequestType.LD.miss_latency_hist_seqr::total     14721804                       (Unspecified)
system.cache_hierarchy.ruby_system.RequestType.ST.latency_hist_seqr::bucket_size          256                       (Unspecified)
system.cache_hierarchy.ruby_system.RequestType.ST.latency_hist_seqr::max_bucket         2559                       (Unspecified)
system.cache_hierarchy.ruby_system.RequestType.ST.latency_hist_seqr::samples    344283757                       (Unspecified)
system.cache_hierarchy.ruby_system.RequestType.ST.latency_hist_seqr::mean     6.177706                       (Unspecified)
system.cache_hierarchy.ruby_system.RequestType.ST.latency_hist_seqr::gmean     1.389020                       (Unspecified)
system.cache_hierarchy.ruby_system.RequestType.ST.latency_hist_seqr::stdev    33.428036                       (Unspecified)
system.cache_hierarchy.ruby_system.RequestType.ST.latency_hist_seqr |   343845430     99.87%     99.87% |      342503      0.10%     99.97% |       19988      0.01%     99.98% |        7880      0.00%     99.98% |       60476      0.02%    100.00% |        6092      0.00%    100.00% |        1385      0.00%    100.00% |           3      0.00%    100.00% |           0      0.00%    100.00% |           0      0.00%    100.00% (Unspecified)
system.cache_hierarchy.ruby_system.RequestType.ST.latency_hist_seqr::total    344283757                       (Unspecified)
system.cache_hierarchy.ruby_system.RequestType.ST.hit_latency_hist_seqr::bucket_size          256                       (Unspecified)
system.cache_hierarchy.ruby_system.RequestType.ST.hit_latency_hist_seqr::max_bucket         2559                       (Unspecified)
system.cache_hierarchy.ruby_system.RequestType.ST.hit_latency_hist_seqr::samples    309459752                       (Unspecified)
system.cache_hierarchy.ruby_system.RequestType.ST.hit_latency_hist_seqr::mean     1.000659                       (Unspecified)
system.cache_hierarchy.ruby_system.RequestType.ST.hit_latency_hist_seqr::gmean     1.000277                       (Unspecified)
system.cache_hierarchy.ruby_system.RequestType.ST.hit_latency_hist_seqr::stdev     0.216887                       (Unspecified)
system.cache_hierarchy.ruby_system.RequestType.ST.hit_latency_hist_seqr |   309459731    100.00%    100.00% |          18      0.00%    100.00% |           0      0.00%    100.00% |           0      0.00%    100.00% |           2      0.00%    100.00% |           1      0.00%    100.00% |           0      0.00%    100.00% |           0      0.00%    100.00% |           0      0.00%    100.00% |           0      0.00%    100.00% (Unspecified)
system.cache_hierarchy.ruby_system.RequestType.ST.hit_latency_hist_seqr::total    309459752                       (Unspecified)
system.cache_hierarchy.ruby_system.RequestType.ST.miss_latency_hist_seqr::bucket_size          256                       (Unspecified)
system.cache_hierarchy.ruby_system.RequestType.ST.miss_latency_hist_seqr::max_bucket         2559                       (Unspecified)
system.cache_hierarchy.ruby_system.RequestType.ST.miss_latency_hist_seqr::samples     34824005                       (Unspecified)
system.cache_hierarchy.ruby_system.RequestType.ST.miss_latency_hist_seqr::mean    52.182972                       (Unspecified)
system.cache_hierarchy.ruby_system.RequestType.ST.miss_latency_hist_seqr::gmean    25.692370                       (Unspecified)
system.cache_hierarchy.ruby_system.RequestType.ST.miss_latency_hist_seqr::stdev    93.232572                       (Unspecified)
system.cache_hierarchy.ruby_system.RequestType.ST.miss_latency_hist_seqr |    34385699     98.74%     98.74% |      342485      0.98%     99.72% |       19988      0.06%     99.78% |        7880      0.02%     99.80% |       60474      0.17%     99.98% |        6091      0.02%    100.00% |        1385      0.00%    100.00% |           3      0.00%    100.00% |           0      0.00%    100.00% |           0      0.00%    100.00% (Unspecified)
system.cache_hierarchy.ruby_system.RequestType.ST.miss_latency_hist_seqr::total     34824005                       (Unspecified)
system.cache_hierarchy.ruby_system.RequestType.IFETCH.latency_hist_seqr::bucket_size          256                       (Unspecified)
system.cache_hierarchy.ruby_system.RequestType.IFETCH.latency_hist_seqr::max_bucket         2559                       (Unspecified)
system.cache_hierarchy.ruby_system.RequestType.IFETCH.latency_hist_seqr::samples    168880173                       (Unspecified)
system.cache_hierarchy.ruby_system.RequestType.IFETCH.latency_hist_seqr::mean     1.269330                       (Unspecified)
system.cache_hierarchy.ruby_system.RequestType.IFETCH.latency_hist_seqr::gmean     1.007768                       (Unspecified)
system.cache_hierarchy.ruby_system.RequestType.IFETCH.latency_hist_seqr::stdev     8.283591                       (Unspecified)
system.cache_hierarchy.ruby_system.RequestType.IFETCH.latency_hist_seqr |   168866715     99.99%     99.99% |       10747      0.01%    100.00% |         624      0.00%    100.00% |          62      0.00%    100.00% |        1800      0.00%    100.00% |         188      0.00%    100.00% |          37      0.00%    100.00% |           0      0.00%    100.00% |           0      0.00%    100.00% |           0      0.00%    100.00% (Unspecified)
system.cache_hierarchy.ruby_system.RequestType.IFETCH.latency_hist_seqr::total    168880173                       (Unspecified)
system.cache_hierarchy.ruby_system.RequestType.IFETCH.hit_latency_hist_seqr::bucket_size            1                       (Unspecified)
system.cache_hierarchy.ruby_system.RequestType.IFETCH.hit_latency_hist_seqr::max_bucket            9                       (Unspecified)
system.cache_hierarchy.ruby_system.RequestType.IFETCH.hit_latency_hist_seqr::samples    168612472                       (Unspecified)
system.cache_hierarchy.ruby_system.RequestType.IFETCH.hit_latency_hist_seqr::mean     1.000000                       (Unspecified)
system.cache_hierarchy.ruby_system.RequestType.IFETCH.hit_latency_hist_seqr::gmean     1.000000                       (Unspecified)
system.cache_hierarchy.ruby_system.RequestType.IFETCH.hit_latency_hist_seqr::stdev     0.000133                       (Unspecified)
system.cache_hierarchy.ruby_system.RequestType.IFETCH.hit_latency_hist_seqr |           0      0.00%      0.00% |   168612469    100.00%    100.00% |           3      0.00%    100.00% |           0      0.00%    100.00% |           0      0.00%    100.00% |           0      0.00%    100.00% |           0      0.00%    100.00% |           0      0.00%    100.00% |           0      0.00%    100.00% |           0      0.00%    100.00% (Unspecified)
system.cache_hierarchy.ruby_system.RequestType.IFETCH.hit_latency_hist_seqr::total    168612472                       (Unspecified)
system.cache_hierarchy.ruby_system.RequestType.IFETCH.miss_latency_hist_seqr::bucket_size          256                       (Unspecified)
system.cache_hierarchy.ruby_system.RequestType.IFETCH.miss_latency_hist_seqr::max_bucket         2559                       (Unspecified)
system.cache_hierarchy.ruby_system.RequestType.IFETCH.miss_latency_hist_seqr::samples       267701                       (Unspecified)
system.cache_hierarchy.ruby_system.RequestType.IFETCH.miss_latency_hist_seqr::mean   170.908054                       (Unspecified)
system.cache_hierarchy.ruby_system.RequestType.IFETCH.miss_latency_hist_seqr::gmean   131.862119                       (Unspecified)
system.cache_hierarchy.ruby_system.RequestType.IFETCH.miss_latency_hist_seqr::stdev   120.270179                       (Unspecified)
system.cache_hierarchy.ruby_system.RequestType.IFETCH.miss_latency_hist_seqr |      254243     94.97%     94.97% |       10747      4.01%     98.99% |         624      0.23%     99.22% |          62      0.02%     99.24% |        1800      0.67%     99.92% |         188      0.07%     99.99% |          37      0.01%    100.00% |           0      0.00%    100.00% |           0      0.00%    100.00% |           0      0.00%    100.00% (Unspecified)
system.cache_hierarchy.ruby_system.RequestType.IFETCH.miss_latency_hist_seqr::total       267701                       (Unspecified)
system.cache_hierarchy.ruby_system.RequestType.RMW_Read.latency_hist_seqr::bucket_size          256                       (Unspecified)
system.cache_hierarchy.ruby_system.RequestType.RMW_Read.latency_hist_seqr::max_bucket         2559                       (Unspecified)
system.cache_hierarchy.ruby_system.RequestType.RMW_Read.latency_hist_seqr::samples    167531528                       (Unspecified)
system.cache_hierarchy.ruby_system.RequestType.RMW_Read.latency_hist_seqr::mean     1.112733                       (Unspecified)
system.cache_hierarchy.ruby_system.RequestType.RMW_Read.latency_hist_seqr::gmean     1.013310                       (Unspecified)
system.cache_hierarchy.ruby_system.RequestType.RMW_Read.latency_hist_seqr::stdev     3.043170                       (Unspecified)
system.cache_hierarchy.ruby_system.RequestType.RMW_Read.latency_hist_seqr |   167530275    100.00%    100.00% |        1002      0.00%    100.00% |          76      0.00%    100.00% |           1      0.00%    100.00% |         141      0.00%    100.00% |          27      0.00%    100.00% |           6      0.00%    100.00% |           0      0.00%    100.00% |           0      0.00%    100.00% |           0      0.00%    100.00% (Unspecified)
system.cache_hierarchy.ruby_system.RequestType.RMW_Read.latency_hist_seqr::total    167531528                       (Unspecified)
system.cache_hierarchy.ruby_system.RequestType.RMW_Read.hit_latency_hist_seqr::bucket_size          256                       (Unspecified)
system.cache_hierarchy.ruby_system.RequestType.RMW_Read.hit_latency_hist_seqr::max_bucket         2559                       (Unspecified)
system.cache_hierarchy.ruby_system.RequestType.RMW_Read.hit_latency_hist_seqr::samples    166813161                       (Unspecified)
system.cache_hierarchy.ruby_system.RequestType.RMW_Read.hit_latency_hist_seqr::mean     1.002824                       (Unspecified)
system.cache_hierarchy.ruby_system.RequestType.RMW_Read.hit_latency_hist_seqr::gmean     1.000104                       (Unspecified)
system.cache_hierarchy.ruby_system.RequestType.RMW_Read.hit_latency_hist_seqr::stdev     0.844123                       (Unspecified)
system.cache_hierarchy.ruby_system.RequestType.RMW_Read.hit_latency_hist_seqr |   166813018    100.00%    100.00% |         126      0.00%    100.00% |           3      0.00%    100.00% |           0      0.00%    100.00% |           8      0.00%    100.00% |           6      0.00%    100.00% |           0      0.00%    100.00% |           0      0.00%    100.00% |           0      0.00%    100.00% |           0      0.00%    100.00% (Unspecified)
system.cache_hierarchy.ruby_system.RequestType.RMW_Read.hit_latency_hist_seqr::total    166813161                       (Unspecified)
system.cache_hierarchy.ruby_system.RequestType.RMW_Read.miss_latency_hist_seqr::bucket_size          256                       (Unspecified)
system.cache_hierarchy.ruby_system.RequestType.RMW_Read.miss_latency_hist_seqr::max_bucket         2559                       (Unspecified)
system.cache_hierarchy.ruby_system.RequestType.RMW_Read.miss_latency_hist_seqr::samples       718367                       (Unspecified)
system.cache_hierarchy.ruby_system.RequestType.RMW_Read.miss_latency_hist_seqr::mean    26.634992                       (Unspecified)
system.cache_hierarchy.ruby_system.RequestType.RMW_Read.miss_latency_hist_seqr::gmean    21.312825                       (Unspecified)
system.cache_hierarchy.ruby_system.RequestType.RMW_Read.miss_latency_hist_seqr::stdev    36.607310                       (Unspecified)
system.cache_hierarchy.ruby_system.RequestType.RMW_Read.miss_latency_hist_seqr |      717257     99.85%     99.85% |         876      0.12%     99.97% |          73      0.01%     99.98% |           1      0.00%     99.98% |         133      0.02%    100.00% |          21      0.00%    100.00% |           6      0.00%    100.00% |           0      0.00%    100.00% |           0      0.00%    100.00% |           0      0.00%    100.00% (Unspecified)
system.cache_hierarchy.ruby_system.RequestType.RMW_Read.miss_latency_hist_seqr::total       718367                       (Unspecified)
system.cache_hierarchy.ruby_system.RequestType.Locked_RMW_Read.latency_hist_seqr::bucket_size          256                       (Unspecified)
system.cache_hierarchy.ruby_system.RequestType.Locked_RMW_Read.latency_hist_seqr::max_bucket         2559                       (Unspecified)
system.cache_hierarchy.ruby_system.RequestType.Locked_RMW_Read.latency_hist_seqr::samples        22509                       (Unspecified)
system.cache_hierarchy.ruby_system.RequestType.Locked_RMW_Read.latency_hist_seqr::mean    50.757919                       (Unspecified)
system.cache_hierarchy.ruby_system.RequestType.Locked_RMW_Read.latency_hist_seqr::gmean     8.585776                       (Unspecified)
system.cache_hierarchy.ruby_system.RequestType.Locked_RMW_Read.latency_hist_seqr::stdev   106.666943                       (Unspecified)
system.cache_hierarchy.ruby_system.RequestType.Locked_RMW_Read.latency_hist_seqr |       21593     95.93%     95.93% |         825      3.67%     99.60% |          40      0.18%     99.77% |           0      0.00%     99.77% |          43      0.19%     99.96% |           7      0.03%    100.00% |           1      0.00%    100.00% |           0      0.00%    100.00% |           0      0.00%    100.00% |           0      0.00%    100.00% (Unspecified)
system.cache_hierarchy.ruby_system.RequestType.Locked_RMW_Read.latency_hist_seqr::total        22509                       (Unspecified)
system.cache_hierarchy.ruby_system.RequestType.Locked_RMW_Read.hit_latency_hist_seqr::bucket_size            1                       (Unspecified)
system.cache_hierarchy.ruby_system.RequestType.Locked_RMW_Read.hit_latency_hist_seqr::max_bucket            9                       (Unspecified)
system.cache_hierarchy.ruby_system.RequestType.Locked_RMW_Read.hit_latency_hist_seqr::samples         9088                       (Unspecified)
system.cache_hierarchy.ruby_system.RequestType.Locked_RMW_Read.hit_latency_hist_seqr::mean            1                       (Unspecified)
system.cache_hierarchy.ruby_system.RequestType.Locked_RMW_Read.hit_latency_hist_seqr::gmean            1                       (Unspecified)
system.cache_hierarchy.ruby_system.RequestType.Locked_RMW_Read.hit_latency_hist_seqr |           0      0.00%      0.00% |        9088    100.00%    100.00% |           0      0.00%    100.00% |           0      0.00%    100.00% |           0      0.00%    100.00% |           0      0.00%    100.00% |           0      0.00%    100.00% |           0      0.00%    100.00% |           0      0.00%    100.00% |           0      0.00%    100.00% (Unspecified)
system.cache_hierarchy.ruby_system.RequestType.Locked_RMW_Read.hit_latency_hist_seqr::total         9088                       (Unspecified)
system.cache_hierarchy.ruby_system.RequestType.Locked_RMW_Read.miss_latency_hist_seqr::bucket_size          256                       (Unspecified)
system.cache_hierarchy.ruby_system.RequestType.Locked_RMW_Read.miss_latency_hist_seqr::max_bucket         2559                       (Unspecified)
system.cache_hierarchy.ruby_system.RequestType.Locked_RMW_Read.miss_latency_hist_seqr::samples        13421                       (Unspecified)
system.cache_hierarchy.ruby_system.RequestType.Locked_RMW_Read.miss_latency_hist_seqr::mean    84.451382                       (Unspecified)
system.cache_hierarchy.ruby_system.RequestType.Locked_RMW_Read.miss_latency_hist_seqr::gmean    36.820211                       (Unspecified)
system.cache_hierarchy.ruby_system.RequestType.Locked_RMW_Read.miss_latency_hist_seqr::stdev   127.557485                       (Unspecified)
system.cache_hierarchy.ruby_system.RequestType.Locked_RMW_Read.miss_latency_hist_seqr |       12505     93.17%     93.17% |         825      6.15%     99.32% |          40      0.30%     99.62% |           0      0.00%     99.62% |          43      0.32%     99.94% |           7      0.05%     99.99% |           1      0.01%    100.00% |           0      0.00%    100.00% |           0      0.00%    100.00% |           0      0.00%    100.00% (Unspecified)
system.cache_hierarchy.ruby_system.RequestType.Locked_RMW_Read.miss_latency_hist_seqr::total        13421                       (Unspecified)
system.cache_hierarchy.ruby_system.RequestType.Locked_RMW_Write.latency_hist_seqr::bucket_size            1                       (Unspecified)
system.cache_hierarchy.ruby_system.RequestType.Locked_RMW_Write.latency_hist_seqr::max_bucket            9                       (Unspecified)
system.cache_hierarchy.ruby_system.RequestType.Locked_RMW_Write.latency_hist_seqr::samples        22509                       (Unspecified)
system.cache_hierarchy.ruby_system.RequestType.Locked_RMW_Write.latency_hist_seqr::mean            1                       (Unspecified)
system.cache_hierarchy.ruby_system.RequestType.Locked_RMW_Write.latency_hist_seqr::gmean            1                       (Unspecified)
system.cache_hierarchy.ruby_system.RequestType.Locked_RMW_Write.latency_hist_seqr |           0      0.00%      0.00% |       22509    100.00%    100.00% |           0      0.00%    100.00% |           0      0.00%    100.00% |           0      0.00%    100.00% |           0      0.00%    100.00% |           0      0.00%    100.00% |           0      0.00%    100.00% |           0      0.00%    100.00% |           0      0.00%    100.00% (Unspecified)
system.cache_hierarchy.ruby_system.RequestType.Locked_RMW_Write.latency_hist_seqr::total        22509                       (Unspecified)
system.cache_hierarchy.ruby_system.RequestType.Locked_RMW_Write.hit_latency_hist_seqr::bucket_size            1                       (Unspecified)
system.cache_hierarchy.ruby_system.RequestType.Locked_RMW_Write.hit_latency_hist_seqr::max_bucket            9                       (Unspecified)
system.cache_hierarchy.ruby_system.RequestType.Locked_RMW_Write.hit_latency_hist_seqr::samples        22509                       (Unspecified)
system.cache_hierarchy.ruby_system.RequestType.Locked_RMW_Write.hit_latency_hist_seqr::mean            1                       (Unspecified)
system.cache_hierarchy.ruby_system.RequestType.Locked_RMW_Write.hit_latency_hist_seqr::gmean            1                       (Unspecified)
system.cache_hierarchy.ruby_system.RequestType.Locked_RMW_Write.hit_latency_hist_seqr |           0      0.00%      0.00% |       22509    100.00%    100.00% |           0      0.00%    100.00% |           0      0.00%    100.00% |           0      0.00%    100.00% |           0      0.00%    100.00% |           0      0.00%    100.00% |           0      0.00%    100.00% |           0      0.00%    100.00% |           0      0.00%    100.00% (Unspecified)
system.cache_hierarchy.ruby_system.RequestType.Locked_RMW_Write.hit_latency_hist_seqr::total        22509                       (Unspecified)
system.cache_hierarchy.ruby_system.directory_controllers0.power_state.pwrStateResidencyTicks::UNDEFINED 6096663036531                       # Cumulative time (in ticks) in various power states (Tick)
[...]
system.processor.switch1.core.fetch.tlbCycles       327177                       # Number of cycles fetch has spent waiting for tlb (Cycle)
system.processor.switch1.core.fetch.miscStallCycles        99376                       # Number of cycles fetch has spent waiting on interrupts, or bad addresses, or out of MSHRs (Cycle)
system.processor.switch1.core.fetch.pendingTrapStallCycles       141604                       # Number of stall cycles due to pending traps (Cycle)
system.processor.switch1.core.fetch.icacheWaitRetryStallCycles         9145                       # Number of stall cycles due to full MSHR (Cycle)
system.processor.switch1.core.fetch.cacheLines     84467681                       # Number of cache lines fetched (Count)
system.processor.switch1.core.fetch.icacheSquashes        15965                       # Number of outstanding Icache misses that were squashed (Count)
system.processor.switch1.core.fetch.tlbSquashes          728                       # Number of outstanding ITLB misses that were squashed (Count)
system.processor.switch1.core.fetch.nisnDist::samples   1925945831                       # Number of instructions fetched each cycle (Total) (Count)
system.processor.switch1.core.fetch.nisnDist::mean     0.980083                       # Number of instructions fetched each cycle (Total) (Count)
system.processor.switch1.core.fetch.nisnDist::stdev     2.433159                       # Number of instructions fetched each cycle (Total) (Count)
system.processor.switch1.core.fetch.nisnDist::underflows            0      0.00%      0.00% # Number of instructions fetched each cycle (Total) (Count)
system.processor.switch1.core.fetch.nisnDist::0   1602986502     83.23%     83.23% # Number of instructions fetched each cycle (Total) (Count)
system.processor.switch1.core.fetch.nisnDist::1     42353915      2.20%     85.43% # Number of instructions fetched each cycle (Total) (Count)
system.processor.switch1.core.fetch.nisnDist::2     21728864      1.13%     86.56% # Number of instructions fetched each cycle (Total) (Count)
system.processor.switch1.core.fetch.nisnDist::3      1282484      0.07%     86.63% # Number of instructions fetched each cycle (Total) (Count)
system.processor.switch1.core.fetch.nisnDist::4     22237423      1.15%     87.78% # Number of instructions fetched each cycle (Total) (Count)
system.processor.switch1.core.fetch.nisnDist::5     42603267      2.21%     89.99% # Number of instructions fetched each cycle (Total) (Count)
system.processor.switch1.core.fetch.nisnDist::6     22581820      1.17%     91.16% # Number of instructions fetched each cycle (Total) (Count)
system.processor.switch1.core.fetch.nisnDist::7       900995      0.05%     91.21% # Number of instructions fetched each cycle (Total) (Count)
system.processor.switch1.core.fetch.nisnDist::8    169270561      8.79%    100.00% # Number of instructions fetched each cycle (Total) (Count)
system.processor.switch1.core.fetch.nisnDist::overflows            0      0.00%    100.00% # Number of instructions fetched each cycle (Total) (Count)
system.processor.switch1.core.fetch.nisnDist::min_value            0                       # Number of instructions fetched each cycle (Total) (Count)
system.processor.switch1.core.fetch.nisnDist::max_value            8                       # Number of instructions fetched each cycle (Total) (Count)
system.processor.switch1.core.fetch.nisnDist::total   1925945831                       # Number of instructions fetched each cycle (Total) (Count)
system.processor.switch1.core.fetch.branchRate     0.067434                       # Number of branch fetches per cycle (Ratio)
system.processor.switch1.core.fetch.rate     0.574193                       # Number of inst fetches per cycle ((Count/Cycle))
system.processor.switch1.core.iew.idleCycles            0                       # Number of cycles IEW is idle (Cycle)
system.processor.switch1.core.iew.squashCycles        52271                       # Number of cycles IEW is squashing (Cycle)
system.processor.switch1.core.iew.blockCycles    490391735                       # Number of cycles IEW is blocking (Cycle)
system.processor.switch1.core.iew.unblockCycles     77666384                       # Number of cycles IEW is unblocking (Cycle)
system.processor.switch1.core.iew.dispatchedInsts   1885891270                       # Number of instructions dispatched to IQ (Count)
system.processor.switch1.core.iew.dispSquashedInsts        16234                       # Number of squashed instructions skipped by dispatch (Count)
system.processor.switch1.core.iew.dispLoadInsts    297827832                       # Number of dispatched load instructions (Count)
system.processor.switch1.core.iew.dispStoreInsts    172301179                       # Number of dispatched store instructions (Count)
system.processor.switch1.core.iew.dispNonSpecInsts        38826                       # Number of dispatched non-speculative instructions (Count)
system.processor.switch1.core.iew.iqFullEvents       932619                       # Number of times the IQ has become full, causing a stall (Count)
system.processor.switch1.core.iew.lsqFullEvents     73342531                       # Number of times the LSQ has become full, causing a stall (Count)
system.processor.switch1.core.iew.memOrderViolationEvents        18234                       # Number of memory order violations (Count)
system.processor.switch1.core.iew.predictedTakenIncorrect        24975                       # Number of branches that were predicted taken incorrectly (Count)
system.processor.switch1.core.iew.predictedNotTakenIncorrect         6492                       # Number of branches that were predicted not taken incorrectly (Count)
system.processor.switch1.core.iew.branchMispredicts        31467                       # Number of branch mispredicts detected at execute (Count)
system.processor.switch1.core.iew.instsToCommit   1885234565                       # Cumulative count of insts sent to commit (Count)
system.processor.switch1.core.iew.writebackCount   1885224037                       # Cumulative count of insts written-back (Count)
system.processor.switch1.core.iew.producerInst   1430393253                       # Number of instructions producing a value (Count)
system.processor.switch1.core.iew.consumerInst   2318885435                       # Number of instructions consuming a value (Count)
system.processor.switch1.core.iew.wbRate     0.972102                       # Insts written-back per cycle ((Count/Cycle))
system.processor.switch1.core.iew.wbFanout     0.616845                       # Average fanout of values written-back ((Count/Count))
system.processor.switch1.core.lsq0.forwLoads       775682                       # Number of loads that had data forwarded from stores (Count)
system.processor.switch1.core.lsq0.squashedLoads       210663                       # Number of loads squashed (Count)
system.processor.switch1.core.lsq0.ignoredResponses           27                       # Number of memory responses ignored because the instruction is squashed (Count)
system.processor.switch1.core.lsq0.memOrderViolation        18234                       # Number of memory ordering violations (Count)
system.processor.switch1.core.lsq0.squashedStores       166493                       # Number of stores squashed (Count)
system.processor.switch1.core.lsq0.rescheduledLoads          235                       # Number of loads that were rescheduled (Count)
system.processor.switch1.core.lsq0.blockedByCache          481                       # Number of times an access to memory failed due to the cache being blocked (Count)
system.processor.switch1.core.lsq0.loadToUse::samples    297617167                       # Distribution of cycle latency between the first time a load is issued and its completion (Unspecified)
system.processor.switch1.core.lsq0.loadToUse::mean     8.711502                       # Distribution of cycle latency between the first time a load is issued and its completion (Unspecified)
system.processor.switch1.core.lsq0.loadToUse::stdev    36.740529                       # Distribution of cycle latency between the first time a load is issued and its completion (Unspecified)
system.processor.switch1.core.lsq0.loadToUse::0-9    273657115     91.95%     91.95% # Distribution of cycle latency between the first time a load is issued and its completion (Unspecified)
system.processor.switch1.core.lsq0.loadToUse::10-19      2849479      0.96%     92.91% # Distribution of cycle latency between the first time a load is issued and its completion (Unspecified)
system.processor.switch1.core.lsq0.loadToUse::20-29      3699010      1.24%     94.15% # Distribution of cycle latency between the first time a load is issued and its completion (Unspecified)
system.processor.switch1.core.lsq0.loadToUse::30-39      3951719      1.33%     95.48% # Distribution of cycle latency between the first time a load is issued and its completion (Unspecified)
system.processor.switch1.core.lsq0.loadToUse::40-49      4810167      1.62%     97.09% # Distribution of cycle latency between the first time a load is issued and its completion (Unspecified)
system.processor.switch1.core.lsq0.loadToUse::50-59      2484998      0.83%     97.93% # Distribution of cycle latency between the first time a load is issued and its completion (Unspecified)
system.processor.switch1.core.lsq0.loadToUse::60-69       624235      0.21%     98.14% # Distribution of cycle latency between the first time a load is issued and its completion (Unspecified)
system.processor.switch1.core.lsq0.loadToUse::70-79       159884      0.05%     98.19% # Distribution of cycle latency between the first time a load is issued and its completion (Unspecified)
system.processor.switch1.core.lsq0.loadToUse::80-89       200439      0.07%     98.26% # Distribution of cycle latency between the first time a load is issued and its completion (Unspecified)
system.processor.switch1.core.lsq0.loadToUse::90-99       238977      0.08%     98.34% # Distribution of cycle latency between the first time a load is issued and its completion (Unspecified)
system.processor.switch1.core.lsq0.loadToUse::100-109       199683      0.07%     98.41% # Distribution of cycle latency between the first time a load is issued and its completion (Unspecified)
system.processor.switch1.core.lsq0.loadToUse::110-119       198407      0.07%     98.47% # Distribution of cycle latency between the first time a load is issued and its completion (Unspecified)
system.processor.switch1.core.lsq0.loadToUse::120-129       387238      0.13%     98.60% # Distribution of cycle latency between the first time a load is issued and its completion (Unspecified)
system.processor.switch1.core.lsq0.loadToUse::130-139       403076      0.14%     98.74% # Distribution of cycle latency between the first time a load is issued and its completion (Unspecified)
system.processor.switch1.core.lsq0.loadToUse::140-149      1110274      0.37%     99.11% # Distribution of cycle latency between the first time a load is issued and its completion (Unspecified)
system.processor.switch1.core.lsq0.loadToUse::150-159       184281      0.06%     99.17% # Distribution of cycle latency between the first time a load is issued and its completion (Unspecified)
system.processor.switch1.core.lsq0.loadToUse::160-169       128559      0.04%     99.22% # Distribution of cycle latency between the first time a load is issued and its completion (Unspecified)
system.processor.switch1.core.lsq0.loadToUse::170-179       128787      0.04%     99.26% # Distribution of cycle latency between the first time a load is issued and its completion (Unspecified)
system.processor.switch1.core.lsq0.loadToUse::180-189       184566      0.06%     99.32% # Distribution of cycle latency between the first time a load is issued and its completion (Unspecified)
system.processor.switch1.core.lsq0.loadToUse::190-199        77923      0.03%     99.35% # Distribution of cycle latency between the first time a load is issued and its completion (Unspecified)
system.processor.switch1.core.lsq0.loadToUse::200-209        28248      0.01%     99.36% # Distribution of cycle latency between the first time a load is issued and its completion (Unspecified)
system.processor.switch1.core.lsq0.loadToUse::210-219        24609      0.01%     99.37% # Distribution of cycle latency between the first time a load is issued and its completion (Unspecified)
system.processor.switch1.core.lsq0.loadToUse::220-229       618409      0.21%     99.57% # Distribution of cycle latency between the first time a load is issued and its completion (Unspecified)
system.processor.switch1.core.lsq0.loadToUse::230-239       728468      0.24%     99.82% # Distribution of cycle latency between the first time a load is issued and its completion (Unspecified)
system.processor.switch1.core.lsq0.loadToUse::240-249        48818      0.02%     99.84% # Distribution of cycle latency between the first time a load is issued and its completion (Unspecified)
system.processor.switch1.core.lsq0.loadToUse::250-259        24331      0.01%     99.84% # Distribution of cycle latency between the first time a load is issued and its completion (Unspecified)
system.processor.switch1.core.lsq0.loadToUse::260-269        19391      0.01%     99.85% # Distribution of cycle latency between the first time a load is issued and its completion (Unspecified)
system.processor.switch1.core.lsq0.loadToUse::270-279        16559      0.01%     99.86% # Distribution of cycle latency between the first time a load is issued and its completion (Unspecified)
system.processor.switch1.core.lsq0.loadToUse::280-289        16545      0.01%     99.86% # Distribution of cycle latency between the first time a load is issued and its completion (Unspecified)
system.processor.switch1.core.lsq0.loadToUse::290-299        16576      0.01%     99.87% # Distribution of cycle latency between the first time a load is issued and its completion (Unspecified)
system.processor.switch1.core.lsq0.loadToUse::overflows       396396      0.13%    100.00% # Distribution of cycle latency between the first time a load is issued and its completion (Unspecified)
system.processor.switch1.core.lsq0.loadToUse::min_value            2                       # Distribution of cycle latency between the first time a load is issued and its completion (Unspecified)
system.processor.switch1.core.lsq0.loadToUse::max_value         2780                       # Distribution of cycle latency between the first time a load is issued and its completion (Unspecified)
system.processor.switch1.core.lsq0.loadToUse::total    297617167                       # Distribution of cycle latency between the first time a load is issued and its completion (Unspecified)
system.processor.switch1.core.mmu.dtb.rdAccesses    297789245                       # TLB accesses on read requests (Count)
system.processor.switch1.core.mmu.dtb.wrAccesses    172286716                       # TLB accesses on write requests (Count)
system.processor.switch1.core.mmu.dtb.rdMisses        27705                       # TLB misses on read requests (Count)
system.processor.switch1.core.mmu.dtb.wrMisses       117606                       # TLB misses on write requests (Count)
system.processor.switch1.core.mmu.dtb.walker.power_state.pwrStateResidencyTicks::UNDEFINED 6096663036531                       # Cumulative time (in ticks) in various power states (Tick)
system.processor.switch1.core.mmu.itb.rdAccesses            0                       # TLB accesses on read requests (Count)
system.processor.switch1.core.mmu.itb.wrAccesses     84472322                       # TLB accesses on write requests (Count)
system.processor.switch1.core.mmu.itb.rdMisses            0                       # TLB misses on read requests (Count)
system.processor.switch1.core.mmu.itb.wrMisses         2399                       # TLB misses on write requests (Count)
system.processor.switch1.core.mmu.itb.walker.power_state.pwrStateResidencyTicks::UNDEFINED 6096663036531                       # Cumulative time (in ticks) in various power states (Tick)
system.processor.switch1.core.power_state.pwrStateResidencyTicks::OFF 6096663036531                       # Cumulative time (in ticks) in various power states (Tick)
system.processor.switch1.core.rename.squashCycles        52271                       # Number of cycles rename is squashing (Cycle)
system.processor.switch1.core.rename.idleCycles    150198331                       # Number of cycles rename is idle (Cycle)
system.processor.switch1.core.rename.blockCycles    734941063                       # Number of cycles rename is blocking (Cycle)
system.processor.switch1.core.rename.serializeStallCycles      4336577                       # count of cycles rename stalled for serializing inst (Cycle)
system.processor.switch1.core.rename.runCycles    190440080                       # Number of cycles rename is running (Cycle)
system.processor.switch1.core.rename.unblockCycles    845977492                       # Number of cycles rename is unblocking (Cycle)
system.processor.switch1.core.rename.renamedInsts   1886003390                       # Number of instructions processed by rename (Count)
system.processor.switch1.core.rename.ROBFullEvents       335408                       # Number of times rename has blocked due to ROB full (Count)
system.processor.switch1.core.rename.IQFullEvents    372211531                       # Number of times rename has blocked due to IQ full (Count)
system.processor.switch1.core.rename.LQFullEvents     49033403                       # Number of times rename has blocked due to LQ full (Count)
system.processor.switch1.core.rename.SQFullEvents    418988511                       # Number of times rename has blocked due to SQ full (Count)
system.processor.switch1.core.rename.renamedOperands   3736020454                       # Number of destination operands rename has renamed (Count)
system.processor.switch1.core.rename.lookups   6740573370                       # Number of register rename lookups that rename has made (Count)
system.processor.switch1.core.rename.intLookups   3109232994                       # Number of integer rename lookups (Count)
system.processor.switch1.core.rename.fpLookups      1582812                       # Number of floating rename lookups (Count)
system.processor.switch1.core.rename.committedMaps   3733148390                       # Number of HB maps that are committed (Count)
system.processor.switch1.core.rename.undoneMaps      2872035                       # Number of HB maps that are undone due to squashing (Count)
system.processor.switch1.core.rename.serializing        36411                       # count of serializing insts renamed (Count)
system.processor.switch1.core.rename.tempSerializing        35886                       # count of temporary serializing insts renamed (Count)
system.processor.switch1.core.rename.skidInsts    937537393                       # count of insts added to the skid buffer (Count)
system.processor.switch1.core.rob.reads    3727221415                       # The number of ROB reads (Count)
system.processor.switch1.core.rob.writes   3771889094                       # The number of ROB writes (Count)
system.processor.switch1.core.thread_0.numInsts   1111979007                       # Number of Instructions committed (Count)
system.processor.switch1.core.thread_0.numOps   1884369043                       # Number of Ops committed (Count)
system.processor.switch1.core.thread_0.numMemRefs            0                       # Number of Memory References (Count)
system.workload.inst.arm                            0                       # number of arm instructions executed (Count)
system.workload.inst.quiesce                        0                       # number of quiesce instructions executed (Count)

---------- End Simulation Statistics   ----------
